
     RDKit          3D

 37 38  0  0  0  0  0  0  0  0999 V2000
   -5.1203   -0.5039   -1.7225 C   0  0  0  0  0  0  0  0  0  0  0  0
   -4.9252    0.6647   -0.7681 C   0  0  0  0  0  0  0  0  0  0  0  0
   -3.6118    0.5700   -0.0261 C   0  0  0  0  0  0  0  0  0  0  0  0
   -3.5802    0.1812    1.3174 C   0  0  0  0  0  0  0  0  0  0  0  0
   -2.3641    0.0895    1.9987 C   0  0  0  0  0  0  0  0  0  0  0  0
   -1.1592    0.3819    1.3559 C   0  0  0  0  0  0  0  0  0  0  0  0
   -1.1833    0.7702    0.0172 C   0  0  0  0  0  0  0  0  0  0  0  0
   -2.4009    0.8638   -0.6686 C   0  0  0  0  0  0  0  0  0  0  0  0
   -0.0519    0.2430    2.1442 O   0  0  0  0  0  0  0  0  0  0  0  0
    1.2376    0.5169    1.5796 C   0  0  0  0  0  0  0  0  0  0  0  0
    1.8045   -0.7257    0.8519 C   0  0  0  0  0  0  0  0  0  0  0  0
    2.1234   -1.7990    1.8095 N   0  0  0  0  0  0  0  0  0  0  0  0
    3.0188   -0.3648    0.0192 C   0  0  0  0  0  0  0  0  0  0  0  0
    4.2444   -0.0370    0.6208 C   0  0  0  0  0  0  0  0  0  0  0  0
    5.3485    0.3161   -0.1567 C   0  0  0  0  0  0  0  0  0  0  0  0
    5.2418    0.3479   -1.5453 C   0  0  0  0  0  0  0  0  0  0  0  0
    4.0326    0.0248   -2.1575 C   0  0  0  0  0  0  0  0  0  0  0  0
    2.9271   -0.3290   -1.3811 C   0  0  0  0  0  0  0  0  0  0  0  0
   -6.0034    0.6865    0.0730 F   0  0  0  0  0  0  0  0  0  0  0  0
   -6.0849   -0.4149   -2.2327 H   0  0  0  0  0  0  0  0  0  0  0  0
   -5.1321   -1.4543   -1.1775 H   0  0  0  0  0  0  0  0  0  0  0  0
   -4.3303   -0.5512   -2.4785 H   0  0  0  0  0  0  0  0  0  0  0  0
   -4.9530    1.6089   -1.3234 H   0  0  0  0  0  0  0  0  0  0  0  0
   -4.5048   -0.0496    1.8436 H   0  0  0  0  0  0  0  0  0  0  0  0
   -2.3580   -0.2111    3.0440 H   0  0  0  0  0  0  0  0  0  0  0  0
   -0.2785    1.0103   -0.5301 H   0  0  0  0  0  0  0  0  0  0  0  0
   -2.3949    1.1727   -1.7121 H   0  0  0  0  0  0  0  0  0  0  0  0
    1.8924    0.7831    2.4198 H   0  0  0  0  0  0  0  0  0  0  0  0
    1.2164    1.4105    0.9439 H   0  0  0  0  0  0  0  0  0  0  0  0
    1.0302   -1.1343    0.1916 H   0  0  0  0  0  0  0  0  0  0  0  0
    2.3614   -2.6400    1.2864 H   0  0  0  0  0  0  0  0  0  0  0  0
    1.2750   -2.0114    2.3359 H   0  0  0  0  0  0  0  0  0  0  0  0
    4.3438   -0.0666    1.7046 H   0  0  0  0  0  0  0  0  0  0  0  0
    6.2921    0.5623    0.3231 H   0  0  0  0  0  0  0  0  0  0  0  0
    6.1025    0.6210   -2.1500 H   0  0  0  0  0  0  0  0  0  0  0  0
    3.9512    0.0466   -3.2411 H   0  0  0  0  0  0  0  0  0  0  0  0
    1.9933   -0.5791   -1.8795 H   0  0  0  0  0  0  0  0  0  0  0  0
  1  2  1  0
  2  3  1  0
  3  4  2  0
  4  5  1  0
  5  6  2  0
  6  7  1  0
  7  8  2  0
  6  9  1  0
  9 10  1  0
 10 11  1  0
 11 12  1  0
 11 13  1  0
 13 14  2  0
 14 15  1  0
 15 16  2  0
 16 17  1  0
 17 18  2  0
  2 19  1  0
  8  3  1  0
 18 13  1  0
  1 20  1  0
  1 21  1  0
  1 22  1  0
  2 23  1  0
  4 24  1  0
  5 25  1  0
  7 26  1  0
  8 27  1  0
 10 28  1  0
 10 29  1  0
 11 30  1  0
 12 31  1  0
 12 32  1  0
 14 33  1  0
 15 34  1  0
 16 35  1  0
 17 36  1  0
 18 37  1  0
M  END
$$$$
