
     RDKit          3D

 35 38  0  0  0  0  0  0  0  0999 V2000
   -1.9720   -1.5250    2.0046 C   0  0  0  0  0  0  0  0  0  0  0  0
   -1.6580   -1.5496    0.5016 C   0  0  0  0  0  0  0  0  0  0  0  0
   -0.5260   -2.5473    0.0504 C   0  0  0  0  0  0  0  0  0  0  0  0
    0.8846   -2.0762    0.2376 C   0  0  0  0  0  0  0  0  0  0  0  0
    1.1963   -1.3165    1.2836 C   0  0  0  0  0  0  0  0  0  0  0  0
    1.8161   -0.0985    0.8162 C   0  0  0  0  0  0  0  0  0  0  0  0
    2.8294   -0.1539   -0.1219 C   0  0  0  0  0  0  0  0  0  0  0  0
    2.9357   -1.4199   -0.8874 C   0  0  0  0  0  0  0  0  0  0  0  0
    3.9058   -1.6831   -1.5838 O   0  0  0  0  0  0  0  0  0  0  0  0
    1.7683   -2.1679   -0.8812 O   0  0  0  0  0  0  0  0  0  0  0  0
    3.4842    1.0126   -0.5206 C   0  0  0  0  0  0  0  0  0  0  0  0
    3.0202    2.2461   -0.0472 C   0  0  0  0  0  0  0  0  0  0  0  0
    1.8375    2.3078    0.7019 C   0  0  0  0  0  0  0  0  0  0  0  0
    1.1895    1.1225    1.0468 C   0  0  0  0  0  0  0  0  0  0  0  0
   -0.1525    1.0959    1.4320 O   0  0  0  0  0  0  0  0  0  0  0  0
   -1.0238    1.0330    0.3398 C   0  0  0  0  0  0  0  0  0  0  0  0
   -1.2831    2.2674   -0.2879 C   0  0  0  0  0  0  0  0  0  0  0  0
   -2.0654    2.3437   -1.4367 C   0  0  0  0  0  0  0  0  0  0  0  0
   -2.6134    1.1867   -1.9680 C   0  0  0  0  0  0  0  0  0  0  0  0
   -2.4125   -0.0367   -1.3256 C   0  0  0  0  0  0  0  0  0  0  0  0
   -1.6475   -0.1505   -0.1389 C   0  0  0  0  0  0  0  0  0  0  0  0
   -1.3328   -0.8615    2.5879 H   0  0  0  0  0  0  0  0  0  0  0  0
   -1.9100   -2.5305    2.4334 H   0  0  0  0  0  0  0  0  0  0  0  0
   -2.9963   -1.1650    2.1627 H   0  0  0  0  0  0  0  0  0  0  0  0
   -2.5620   -2.0404    0.1040 H   0  0  0  0  0  0  0  0  0  0  0  0
   -0.6740   -2.7389   -1.0213 H   0  0  0  0  0  0  0  0  0  0  0  0
   -0.6560   -3.5119    0.5558 H   0  0  0  0  0  0  0  0  0  0  0  0
    0.6191   -1.2499    2.1926 H   0  0  0  0  0  0  0  0  0  0  0  0
    4.2945    0.9699   -1.2444 H   0  0  0  0  0  0  0  0  0  0  0  0
    3.5137    3.1648   -0.3569 H   0  0  0  0  0  0  0  0  0  0  0  0
    1.3968    3.2703    0.9420 H   0  0  0  0  0  0  0  0  0  0  0  0
   -0.8617    3.1833    0.1168 H   0  0  0  0  0  0  0  0  0  0  0  0
   -2.2387    3.3027   -1.9171 H   0  0  0  0  0  0  0  0  0  0  0  0
   -3.2172    1.2332   -2.8708 H   0  0  0  0  0  0  0  0  0  0  0  0
   -2.8888   -0.9167   -1.7569 H   0  0  0  0  0  0  0  0  0  0  0  0
  1  2  1  0
  2  3  1  0
  3  4  1  0
  4  5  2  0
  5  6  1  0
  6  7  2  0
  7  8  1  0
  8  9  2  0
  8 10  1  0
  7 11  1  0
 11 12  2  0
 12 13  1  0
 13 14  2  0
 14 15  1  0
 15 16  1  0
 16 17  2  0
 17 18  1  0
 18 19  2  0
 19 20  1  0
 20 21  2  0
 21  2  1  0
 10  4  1  0
 14  6  1  0
 21 16  1  0
  1 22  1  0
  1 23  1  0
  1 24  1  0
  2 25  1  0
  3 26  1  0
  3 27  1  0
  5 28  1  0
 11 29  1  0
 12 30  1  0
 13 31  1  0
 17 32  1  0
 18 33  1  0
 19 34  1  0
 20 35  1  0
M  END
$$$$
