
     RDKit          3D

 46 48  0  0  0  0  0  0  0  0999 V2000
    1.4177    1.9057    3.7422 C   0  0  0  0  0  0  0  0  0  0  0  0
    0.0305    1.6631    3.1790 C   0  0  0  0  0  0  0  0  0  0  0  0
    0.0703    0.6626    2.1528 O   0  0  0  0  0  0  0  0  0  0  0  0
    0.3652    1.1129    0.9085 C   0  0  0  0  0  0  0  0  0  0  0  0
    0.6183    2.2590    0.5736 O   0  0  0  0  0  0  0  0  0  0  0  0
    0.2540   -0.0265   -0.0410 C   0  0  0  0  0  0  0  0  0  0  0  0
    1.3896   -0.6000   -0.4802 C   0  0  0  0  0  0  0  0  0  0  0  0
    1.2939   -1.7008   -1.4799 C   0  0  0  0  0  0  0  0  0  0  0  0
    1.8627   -1.6393   -2.5658 O   0  0  0  0  0  0  0  0  0  0  0  0
    0.6265   -2.8208   -1.0096 N   0  0  0  0  0  0  0  0  0  0  0  0
    1.1585   -4.1095   -1.4049 C   0  0  0  0  0  0  0  0  0  0  0  0
   -0.6739   -2.8255   -0.5218 C   0  0  0  0  0  0  0  0  0  0  0  0
   -1.2014   -3.8268   -0.0378 O   0  0  0  0  0  0  0  0  0  0  0  0
   -1.5199   -1.6086   -0.7701 C   0  0  0  0  0  0  0  0  0  0  0  0
   -2.8891   -1.9989   -1.2792 C   0  0  0  0  0  0  0  0  0  0  0  0
   -1.0898   -0.3444   -0.5455 C   0  0  0  0  0  0  0  0  0  0  0  0
   -2.0298    0.7804   -0.8239 C   0  0  0  0  0  0  0  0  0  0  0  0
   -1.8608    1.4899   -2.0256 C   0  0  0  0  0  0  0  0  0  0  0  0
   -2.6945    2.5664   -2.3367 C   0  0  0  0  0  0  0  0  0  0  0  0
   -3.6990    2.9444   -1.4489 C   0  0  0  0  0  0  0  0  0  0  0  0
   -4.7254    4.2691   -1.8374 Cl  0  0  0  0  0  0  0  0  0  0  0  0
   -3.8796    2.2594   -0.2503 C   0  0  0  0  0  0  0  0  0  0  0  0
   -3.0464    1.1827    0.0639 C   0  0  0  0  0  0  0  0  0  0  0  0
   -3.3156    0.3763    1.5694 Cl  0  0  0  0  0  0  0  0  0  0  0  0
    2.6957   -0.2274   -0.0294 C   0  0  0  0  0  0  0  0  0  0  0  0
    3.9014   -0.1845   -0.7268 C   0  0  0  0  0  0  0  0  0  0  0  0
    4.9173    0.2299    0.1662 C   0  0  0  0  0  0  0  0  0  0  0  0
    4.2978    0.4144    1.3734 C   0  0  0  0  0  0  0  0  0  0  0  0
    2.9768    0.1382    1.2722 O   0  0  0  0  0  0  0  0  0  0  0  0
    2.0836    2.3205    2.9792 H   0  0  0  0  0  0  0  0  0  0  0  0
    1.8657    0.9665    4.0828 H   0  0  0  0  0  0  0  0  0  0  0  0
    1.3776    2.6041    4.5828 H   0  0  0  0  0  0  0  0  0  0  0  0
   -0.6247    1.2822    3.9693 H   0  0  0  0  0  0  0  0  0  0  0  0
   -0.4195    2.5917    2.8090 H   0  0  0  0  0  0  0  0  0  0  0  0
    0.6095   -4.4634   -2.2838 H   0  0  0  0  0  0  0  0  0  0  0  0
    2.2224   -4.0355   -1.6507 H   0  0  0  0  0  0  0  0  0  0  0  0
    1.0297   -4.8335   -0.5944 H   0  0  0  0  0  0  0  0  0  0  0  0
   -3.4422   -1.1707   -1.7293 H   0  0  0  0  0  0  0  0  0  0  0  0
   -2.8009   -2.7647   -2.0586 H   0  0  0  0  0  0  0  0  0  0  0  0
   -3.4955   -2.4063   -0.4634 H   0  0  0  0  0  0  0  0  0  0  0  0
   -1.0747    1.2141   -2.7271 H   0  0  0  0  0  0  0  0  0  0  0  0
   -2.5504    3.1080   -3.2687 H   0  0  0  0  0  0  0  0  0  0  0  0
   -4.6636    2.5648    0.4377 H   0  0  0  0  0  0  0  0  0  0  0  0
    4.0274   -0.4196   -1.7764 H   0  0  0  0  0  0  0  0  0  0  0  0
    5.9668    0.3761   -0.0468 H   0  0  0  0  0  0  0  0  0  0  0  0
    4.6378    0.7243    2.3519 H   0  0  0  0  0  0  0  0  0  0  0  0
  1  2  1  0
  2  3  1  0
  3  4  1  0
  4  5  2  0
  4  6  1  0
  6  7  2  0
  7  8  1  0
  8  9  2  0
  8 10  1  0
 10 11  1  0
 10 12  1  0
 12 13  2  0
 12 14  1  0
 14 15  1  0
 14 16  2  0
 16 17  1  0
 17 18  2  0
 18 19  1  0
 19 20  2  0
 20 21  1  0
 20 22  1  0
 22 23  2  0
 23 24  1  0
  7 25  1  0
 25 26  2  0
 26 27  1  0
 27 28  2  0
 28 29  1  0
 16  6  1  0
 23 17  1  0
 29 25  1  0
  1 30  1  0
  1 31  1  0
  1 32  1  0
  2 33  1  0
  2 34  1  0
 11 35  1  0
 11 36  1  0
 11 37  1  0
 15 38  1  0
 15 39  1  0
 15 40  1  0
 18 41  1  0
 19 42  1  0
 22 43  1  0
 26 44  1  0
 27 45  1  0
 28 46  1  0
M  END
$$$$
