
     RDKit          3D

 24 25  0  0  0  0  0  0  0  0999 V2000
    2.9663    1.9820   -1.5263 N   0  0  0  0  0  0  0  0  0  0  0  0
    2.6938    0.8412   -0.7995 C   0  0  0  0  0  0  0  0  0  0  0  0
    1.4289    0.5931   -0.5049 N   0  0  0  0  0  0  0  0  0  0  0  0
    1.1923   -0.5075    0.1992 C   0  0  0  0  0  0  0  0  0  0  0  0
   -0.0976   -0.8766    0.5665 N   0  0  0  0  0  0  0  0  0  0  0  0
   -1.3809   -0.3606    0.3221 C   0  0  0  0  0  0  0  0  0  0  0  0
   -1.6179    0.7582   -0.4862 C   0  0  0  0  0  0  0  0  0  0  0  0
   -2.9146    1.2453   -0.6935 C   0  0  0  0  0  0  0  0  0  0  0  0
   -4.0049    0.6234   -0.0926 C   0  0  0  0  0  0  0  0  0  0  0  0
   -3.8008   -0.4891    0.7177 C   0  0  0  0  0  0  0  0  0  0  0  0
   -2.5042   -0.9723    0.9213 C   0  0  0  0  0  0  0  0  0  0  0  0
   -2.3099   -2.3613    1.9408 Cl  0  0  0  0  0  0  0  0  0  0  0  0
    2.1493   -1.3256    0.6193 N   0  0  0  0  0  0  0  0  0  0  0  0
    3.3829   -0.9712    0.2769 C   0  0  0  0  0  0  0  0  0  0  0  0
    3.7175    0.1030   -0.4228 N   0  0  0  0  0  0  0  0  0  0  0  0
    4.6907   -2.0312    0.8233 S   0  0  0  0  0  0  0  0  0  0  0  0
    2.2330    2.6670   -1.4103 H   0  0  0  0  0  0  0  0  0  0  0  0
    3.9173    2.2868   -1.3701 H   0  0  0  0  0  0  0  0  0  0  0  0
   -0.0764   -1.7252    1.1195 H   0  0  0  0  0  0  0  0  0  0  0  0
   -0.8015    1.2746   -0.9816 H   0  0  0  0  0  0  0  0  0  0  0  0
   -3.0671    2.1142   -1.3298 H   0  0  0  0  0  0  0  0  0  0  0  0
   -5.0098    1.0042   -0.2562 H   0  0  0  0  0  0  0  0  0  0  0  0
   -4.6508   -0.9763    1.1879 H   0  0  0  0  0  0  0  0  0  0  0  0
    3.8645   -2.8962    1.4227 H   0  0  0  0  0  0  0  0  0  0  0  0
  1  2  1  0
  2  3  2  0
  3  4  1  0
  4  5  1  0
  5  6  1  0
  6  7  2  0
  7  8  1  0
  8  9  2  0
  9 10  1  0
 10 11  2  0
 11 12  1  0
  4 13  2  0
 13 14  1  0
 14 15  2  0
 14 16  1  0
 15  2  1  0
 11  6  1  0
  1 17  1  0
  1 18  1  0
  5 19  1  0
  7 20  1  0
  8 21  1  0
  9 22  1  0
 10 23  1  0
 16 24  1  0
M  END
$$$$
