
     RDKit          3D

 28 28  0  0  0  0  0  0  0  0999 V2000
   -4.1240   -0.9807    0.4292 C   0  0  0  0  0  0  0  0  0  0  0  0
   -3.4695    0.2827   -0.1322 C   0  0  0  0  0  0  0  0  0  0  0  0
   -4.0386    1.5139    0.5785 C   0  0  0  0  0  0  0  0  0  0  0  0
   -2.0130    0.2769    0.0501 N   0  0  0  0  0  0  0  0  0  0  0  0
   -1.3348   -0.6971   -0.8023 C   0  0  0  0  0  0  0  0  0  0  0  0
    0.1178   -0.5295   -0.6762 C   0  0  0  0  0  0  0  0  0  0  0  0
    1.3070   -0.3915   -0.5730 C   0  0  0  0  0  0  0  0  0  0  0  0
    2.7212   -0.2235   -0.4410 C   0  0  0  0  0  0  0  0  0  0  0  0
    3.5532   -0.3832   -1.5516 C   0  0  0  0  0  0  0  0  0  0  0  0
    4.9336   -0.2181   -1.4202 C   0  0  0  0  0  0  0  0  0  0  0  0
    5.4826    0.1064   -0.1795 C   0  0  0  0  0  0  0  0  0  0  0  0
    4.6532    0.2663    0.9306 C   0  0  0  0  0  0  0  0  0  0  0  0
    3.2728    0.1014    0.8004 C   0  0  0  0  0  0  0  0  0  0  0  0
   -3.8625   -1.1328    1.4824 H   0  0  0  0  0  0  0  0  0  0  0  0
   -3.8240   -1.8734   -0.1284 H   0  0  0  0  0  0  0  0  0  0  0  0
   -5.2155   -0.9114    0.3632 H   0  0  0  0  0  0  0  0  0  0  0  0
   -3.7130    0.3730   -1.1981 H   0  0  0  0  0  0  0  0  0  0  0  0
   -3.6134    2.4373    0.1693 H   0  0  0  0  0  0  0  0  0  0  0  0
   -3.8285    1.4912    1.6540 H   0  0  0  0  0  0  0  0  0  0  0  0
   -5.1252    1.5673    0.4494 H   0  0  0  0  0  0  0  0  0  0  0  0
   -1.6413    1.2007   -0.1711 H   0  0  0  0  0  0  0  0  0  0  0  0
   -1.5978   -1.7187   -0.5100 H   0  0  0  0  0  0  0  0  0  0  0  0
   -1.6219   -0.5584   -1.8511 H   0  0  0  0  0  0  0  0  0  0  0  0
    3.1326   -0.6365   -2.5214 H   0  0  0  0  0  0  0  0  0  0  0  0
    5.5799   -0.3430   -2.2850 H   0  0  0  0  0  0  0  0  0  0  0  0
    6.5572    0.2346   -0.0776 H   0  0  0  0  0  0  0  0  0  0  0  0
    5.0803    0.5188    1.8975 H   0  0  0  0  0  0  0  0  0  0  0  0
    2.6316    0.2270    1.6696 H   0  0  0  0  0  0  0  0  0  0  0  0
  1  2  1  0
  2  3  1  0
  2  4  1  0
  4  5  1  0
  5  6  1  0
  6  7  3  0
  7  8  1  0
  8  9  2  0
  9 10  1  0
 10 11  2  0
 11 12  1  0
 12 13  2  0
 13  8  1  0
  1 14  1  0
  1 15  1  0
  1 16  1  0
  2 17  1  0
  3 18  1  0
  3 19  1  0
  3 20  1  0
  4 21  1  0
  5 22  1  0
  5 23  1  0
  9 24  1  0
 10 25  1  0
 11 26  1  0
 12 27  1  0
 13 28  1  0
M  END
$$$$
