
     RDKit          3D

 37 39  0  0  0  0  0  0  0  0999 V2000
    2.2641    3.5832    2.2390 Cl  0  0  0  0  0  0  0  0  0  0  0  0
    2.3670    2.1929    1.2304 C   0  0  0  0  0  0  0  0  0  0  0  0
    3.4326    2.0557    0.3504 C   0  0  0  0  0  0  0  0  0  0  0  0
    3.5190    0.9189   -0.4510 C   0  0  0  0  0  0  0  0  0  0  0  0
    2.5386   -0.0860   -0.3813 C   0  0  0  0  0  0  0  0  0  0  0  0
    1.4284    0.0719    0.4743 C   0  0  0  0  0  0  0  0  0  0  0  0
    1.3789    1.2114    1.3019 C   0  0  0  0  0  0  0  0  0  0  0  0
    0.3361   -0.9983    0.5663 C   0  0  0  0  0  0  0  0  0  0  0  0
   -1.0334   -0.4382    0.6225 N   0  0  0  0  0  0  0  0  0  0  0  0
   -1.4539    0.3119   -0.5667 C   0  0  0  0  0  0  0  0  0  0  0  0
   -2.1685    1.6117   -0.1759 C   0  0  0  0  0  0  0  0  0  0  0  0
   -3.5730    1.1868    0.2460 C   0  0  0  0  0  0  0  0  0  0  0  0
   -3.8404   -0.1360   -0.4719 C   0  0  0  0  0  0  0  0  0  0  0  0
   -2.5835   -0.4278   -1.2891 C   0  0  0  0  0  0  0  0  0  0  0  0
    0.4707   -2.1197   -0.5048 C   0  0  0  0  0  0  0  0  0  0  0  0
   -0.4460   -3.5891   -0.0208 Cl  0  0  0  0  0  0  0  0  0  0  0  0
    1.9296   -2.5045   -0.7247 C   0  0  0  0  0  0  0  0  0  0  0  0
    2.6958   -1.3016   -1.2592 C   0  0  0  0  0  0  0  0  0  0  0  0
    4.2018    2.8206    0.2899 H   0  0  0  0  0  0  0  0  0  0  0  0
    4.3651    0.8138   -1.1279 H   0  0  0  0  0  0  0  0  0  0  0  0
    0.5658    1.3417    2.0109 H   0  0  0  0  0  0  0  0  0  0  0  0
    0.5066   -1.4761    1.5424 H   0  0  0  0  0  0  0  0  0  0  0  0
   -1.1388    0.1216    1.4644 H   0  0  0  0  0  0  0  0  0  0  0  0
   -0.6229    0.5303   -1.2453 H   0  0  0  0  0  0  0  0  0  0  0  0
   -2.2358    2.2681   -1.0531 H   0  0  0  0  0  0  0  0  0  0  0  0
   -1.6539    2.1756    0.6089 H   0  0  0  0  0  0  0  0  0  0  0  0
   -4.3138    1.9491   -0.0156 H   0  0  0  0  0  0  0  0  0  0  0  0
   -3.6221    1.0400    1.3311 H   0  0  0  0  0  0  0  0  0  0  0  0
   -4.7265   -0.0802   -1.1121 H   0  0  0  0  0  0  0  0  0  0  0  0
   -4.0152   -0.9308    0.2624 H   0  0  0  0  0  0  0  0  0  0  0  0
   -2.4097   -1.5021   -1.4001 H   0  0  0  0  0  0  0  0  0  0  0  0
   -2.7024   -0.0144   -2.2989 H   0  0  0  0  0  0  0  0  0  0  0  0
    0.0499   -1.7999   -1.4645 H   0  0  0  0  0  0  0  0  0  0  0  0
    2.3800   -2.8509    0.2150 H   0  0  0  0  0  0  0  0  0  0  0  0
    2.0106   -3.3281   -1.4443 H   0  0  0  0  0  0  0  0  0  0  0  0
    2.3433   -1.0498   -2.2671 H   0  0  0  0  0  0  0  0  0  0  0  0
    3.7559   -1.5717   -1.3370 H   0  0  0  0  0  0  0  0  0  0  0  0
  1  2  1  0
  2  3  2  0
  3  4  1  0
  4  5  2  0
  5  6  1  0
  6  7  2  0
  6  8  1  0
  8  9  1  0
  9 10  1  0
 10 11  1  0
 11 12  1  0
 12 13  1  0
 13 14  1  0
  8 15  1  0
 15 16  1  0
 15 17  1  0
 17 18  1  0
  7  2  1  0
 18  5  1  0
 14 10  1  0
  3 19  1  0
  4 20  1  0
  7 21  1  0
  8 22  1  0
  9 23  1  0
 10 24  1  0
 11 25  1  0
 11 26  1  0
 12 27  1  0
 12 28  1  0
 13 29  1  0
 13 30  1  0
 14 31  1  0
 14 32  1  0
 15 33  1  0
 17 34  1  0
 17 35  1  0
 18 36  1  0
 18 37  1  0
M  END
$$$$
